Version 4
SHEET 1 880 680
WIRE 288 128 96 128
WIRE 96 160 96 128
WIRE 96 256 96 240
WIRE 96 256 -32 256
WIRE 96 288 96 256
WIRE 288 304 288 128
WIRE -32 352 -32 336
WIRE 48 352 -32 352
WIRE -32 448 -32 432
WIRE 96 448 96 416
WIRE 288 448 288 384
FLAG 96 448 0
FLAG 288 448 0
FLAG -32 448 0
SYMBOL AutoGenerated/TL431 96 352 R0
SYMATTR InstName U1
SYMBOL res 80 144 R0
SYMATTR InstName R1
SYMATTR Value 200
SYMBOL voltage 288 288 R0
SYMATTR InstName V1
SYMATTR Value 7
SYMBOL res -48 336 R0
SYMATTR InstName R2
SYMATTR Value 10k
SYMBOL res -48 240 R0
SYMATTR InstName R3
SYMATTR Value 14048
TEXT 112 552 Left 2 !.include tl431.mod
TEXT 120 600 Left 2 !.tran 100m
