Version 4
SHEET 1 1364 712
WIRE -96 0 -272 0
WIRE -16 0 -32 0
WIRE -16 48 -16 0
WIRE 32 48 -16 48
WIRE 64 48 32 48
WIRE 144 48 64 48
WIRE 256 48 144 48
WIRE 368 48 256 48
WIRE 400 48 368 48
WIRE 528 48 480 48
WIRE 608 48 528 48
WIRE 752 48 672 48
WIRE 800 48 752 48
WIRE 912 48 864 48
WIRE 992 48 912 48
WIRE 1024 48 992 48
WIRE 1248 48 1024 48
WIRE 1296 48 1248 48
WIRE 752 80 752 48
WIRE 912 80 912 48
WIRE 992 80 992 48
WIRE -96 96 -160 96
WIRE -16 96 -16 48
WIRE -16 96 -32 96
WIRE 64 96 64 48
WIRE 144 96 144 48
WIRE -160 144 -160 96
WIRE 368 144 368 48
WIRE 528 144 528 48
WIRE 1024 144 1024 48
WIRE 752 176 752 160
WIRE 912 176 912 144
WIRE 992 176 992 144
WIRE 1296 176 1296 48
WIRE 256 208 256 48
WIRE 288 208 256 208
WIRE 672 208 608 208
WIRE 672 224 672 208
WIRE 1024 240 1024 224
WIRE 1024 240 768 240
WIRE -272 256 -272 224
WIRE -160 256 -160 224
WIRE 1024 256 1024 240
WIRE 288 304 256 304
WIRE 768 304 768 240
WIRE 768 304 608 304
WIRE 256 336 256 304
WIRE 1024 352 1024 336
WIRE 288 400 224 400
WIRE 1296 400 1296 256
WIRE 1296 400 608 400
WIRE 1296 448 1296 400
WIRE 224 464 224 400
WIRE 352 480 352 464
WIRE 448 512 448 464
WIRE 224 576 224 544
WIRE 352 576 352 544
WIRE 544 624 544 608
FLAG 752 176 0
FLAG 448 512 0
FLAG 256 336 0
FLAG -160 256 0
FLAG 352 576 0
FLAG 224 576 0
FLAG 544 624 0
FLAG 1024 352 0
FLAG 672 288 0
FLAG 912 176 0
FLAG 1248 48 Vout
FLAG 32 48 Vin
FLAG 144 160 0
FLAG 1296 448 0
FLAG 992 176 0
FLAG -272 256 0
FLAG 64 160 0
SYMBOL PowerProducts/LT8365 448 304 R0
SYMATTR InstName U1
SYMBOL cap 672 32 R90
WINDOW 0 0 32 VBottom 2
WINDOW 3 32 32 VTop 2
SYMATTR InstName C1
SYMATTR Value 1µ
SYMATTR SpiceLine Rser=0.01
SYMBOL schottky 800 64 R270
WINDOW 0 32 32 VTop 2
WINDOW 3 0 32 VBottom 2
SYMATTR InstName D1
SYMATTR Value SS24
SYMATTR Description Diode
SYMATTR Type diode
SYMBOL voltage -160 128 R0
SYMATTR InstName V1
SYMATTR Value PULSE(0 48 10m 10m 10m)
SYMATTR SpiceLine Rser=0.1
SYMBOL res 208 448 R0
SYMATTR InstName R1
SYMATTR Value 90k
SYMBOL cap 336 480 R0
SYMATTR InstName C2
SYMATTR Value 10n
SYMBOL cap 528 544 R0
SYMATTR InstName C3
SYMATTR Value 6.8n
SYMBOL res 528 448 R0
SYMATTR InstName R2
SYMATTR Value 33k
SYMBOL res 1008 128 R0
SYMATTR InstName R3
SYMATTR Value 1000k
SYMBOL res 1008 240 R0
SYMATTR InstName R4
SYMATTR Value 296k
SYMBOL cap 656 224 R0
SYMATTR InstName C4
SYMATTR Value 10µ
SYMBOL cap 896 80 R0
SYMATTR InstName C5
SYMATTR Value 100µ
SYMATTR SpiceLine Rser=0.01
SYMBOL res 1280 160 R0
SYMATTR InstName R5
SYMATTR Value 40
SYMBOL cap 128 96 R0
SYMATTR InstName C6
SYMATTR Value 10µ
SYMATTR SpiceLine Rser=0.01
SYMBOL cap 976 80 R0
SYMATTR InstName C7
SYMATTR Value 100µ
SYMATTR SpiceLine Rser=0.01
SYMBOL ind2 736 64 R0
SYMATTR InstName L1
SYMATTR Value 40µ
SYMATTR SpiceLine Rser=0.01
SYMBOL ind2 496 64 M270
WINDOW 0 32 56 VTop 2
WINDOW 3 4 56 VBottom 2
SYMATTR InstName L2
SYMATTR Value 40µ
SYMATTR SpiceLine Rser=0.01
SYMBOL voltage -272 128 R0
SYMATTR InstName V2
SYMATTR Value 4
SYMATTR SpiceLine Rser=0.1
SYMBOL schottky -96 16 R270
WINDOW 0 32 32 VTop 2
WINDOW 3 0 32 VBottom 2
SYMATTR InstName D2
SYMATTR Value SS24
SYMATTR Description Diode
SYMATTR Type diode
SYMBOL schottky -96 112 R270
WINDOW 0 32 32 VTop 2
WINDOW 3 0 32 VBottom 2
SYMATTR InstName D3
SYMATTR Value SS24
SYMATTR Description Diode
SYMATTR Type diode
SYMBOL cap 48 96 R0
SYMATTR InstName C8
SYMATTR Value 10µ
SYMATTR SpiceLine Rser=0.01
TEXT 816 624 Left 2 !.tran 100m startup
TEXT 816 664 Left 2 ;.tran 0 1000m 0 1u
TEXT 824 584 Left 2 !K L1 L2 1
