Version 4
SHEET 1 2464 1328
WIRE 0 160 -144 160
WIRE 208 160 80 160
WIRE 224 160 208 160
WIRE 320 160 304 160
WIRE 368 160 320 160
WIRE 608 160 448 160
WIRE -144 192 -144 160
WIRE 608 192 608 160
WIRE 208 512 208 160
WIRE 208 512 -160 512
WIRE 768 512 208 512
WIRE -160 640 -160 512
WIRE -128 640 -160 640
WIRE 160 640 128 640
WIRE 272 640 240 640
WIRE 320 640 320 160
WIRE 320 640 272 640
WIRE 368 640 320 640
WIRE 656 640 624 640
WIRE 768 640 768 512
WIRE 768 640 736 640
WIRE -128 752 -160 752
WIRE 272 752 272 640
WIRE 272 752 128 752
WIRE 368 752 336 752
WIRE 768 752 768 640
WIRE 768 752 624 752
WIRE -160 784 -160 752
WIRE 336 784 336 752
WIRE 160 912 128 912
WIRE 656 912 624 912
WIRE 160 976 160 912
WIRE 656 976 656 912
WIRE 656 976 160 976
WIRE 656 1008 656 976
WIRE 656 1104 656 1088
WIRE 1296 1152 1136 1152
WIRE 1136 1248 1136 1152
WIRE 1168 1248 1136 1248
WIRE 1296 1264 1296 1152
WIRE 1296 1264 1232 1264
FLAG -544 688 VCC
FLAG -544 768 0
FLAG -144 272 0
FLAG 608 272 0
FLAG 656 1104 0
FLAG 336 784 0
FLAG 1200 1296 0
FLAG 1200 1232 VCC
FLAG -160 784 0
SYMBOL res 320 144 R90
WINDOW 0 0 56 VBottom 2
WINDOW 3 32 56 VTop 2
SYMATTR InstName R1
SYMATTR Value 0.005
SYMBOL voltage -544 672 R0
SYMATTR InstName V1
SYMATTR Value 7
SYMATTR SpiceLine Rser=0.01
SYMBOL res 96 144 R90
WINDOW 0 0 56 VBottom 2
WINDOW 3 32 56 VTop 2
SYMATTR InstName R3
SYMATTR Value 2.5
SYMBOL res 464 144 R90
WINDOW 0 0 56 VBottom 2
WINDOW 3 32 56 VTop 2
SYMATTR InstName R9
SYMATTR Value 2.5
SYMBOL voltage 608 176 R0
WINDOW 3 -166 -55 Left 2
SYMATTR Value SINE(25 25 1 0 0 180)
SYMATTR InstName V3
SYMATTR SpiceLine Rser=0
SYMBOL voltage -144 176 R0
WINDOW 3 -166 -55 Left 2
SYMATTR Value SINE(25 25 1 0 0 0)
SYMATTR InstName V4
SYMATTR SpiceLine Rser=0
SYMBOL res 640 992 R0
SYMATTR InstName R6
SYMATTR Value 20k
SYMBOL OpAmps/LTC6101 496 768 R0
SYMATTR InstName U1
SYMBOL OpAmps/AD8030 1200 1200 R0
SYMATTR InstName U2
SYMBOL res 752 624 R90
WINDOW 0 0 56 VBottom 2
WINDOW 3 32 56 VTop 2
SYMATTR InstName R2
SYMATTR Value 200
SYMBOL OpAmps/LTC6101 0 768 R0
SYMATTR InstName U3
SYMBOL res 256 624 R90
WINDOW 0 0 56 VBottom 2
WINDOW 3 32 56 VTop 2
SYMATTR InstName R4
SYMATTR Value 200
TEXT -568 880 Left 2 !.lib ina240a2.lib
TEXT -568 840 Left 2 !.tran 3s startup
